REMARK  4 active torsions:
REMARK  status: ('A' for Active; 'I' for Inactive)
REMARK    1  A    between atoms: N_4  and  C_11 
REMARK       I    between atoms: N_4  and  C_22 
REMARK    2  A    between atoms: C_8  and  C_11 
REMARK    3  A    between atoms: C_18  and  C_25 
REMARK    4  A    between atoms: C_22  and  C_28 
ROOT
HETATM    1  O   UNL     1       1.230  -3.792   1.158  1.00  0.00    -0.268 OA
HETATM    2  N   UNL     1       2.330  -2.618  -0.520  1.00  0.00    -0.347 N 
HETATM    3  C   UNL     1       1.261  -2.866   0.346  1.00  0.00     0.243 C 
HETATM    4  C   UNL     1       3.495  -3.492  -0.485  1.00  0.00     0.153 C 
ENDROOT
BRANCH   3   5
HETATM    5  C   UNL     1       0.092  -1.945   0.228  1.00  0.00     0.075 C 
HETATM    6  C   UNL     1      -1.162  -2.401   0.458  1.00  0.00     0.018 C 
BRANCH   6   7
HETATM    7  C   UNL     1      -2.376  -1.613   0.345  1.00  0.00    -0.018 A 
HETATM    8  C   UNL     1      -2.336  -0.224   0.385  1.00  0.00     0.024 A 
HETATM    9  C   UNL     1      -3.518   0.509   0.268  1.00  0.00    -0.011 A 
HETATM   10  C   UNL     1      -3.531   2.001   0.401  1.00  0.00     0.052 C 
HETATM   11  C   UNL     1      -4.713  -0.195   0.127  1.00  0.00     0.136 A 
HETATM   12  C   UNL     1      -4.691   2.603  -0.376  1.00  0.00     0.108 C 
HETATM   13  C   UNL     1      -6.004   1.894  -0.112  1.00  0.00     0.223 C 
HETATM   14  O   UNL     1      -7.073   2.504  -0.124  1.00  0.00    -0.273 OA
HETATM   15  N   UNL     1      -5.921   0.523   0.032  1.00  0.00    -0.311 N 
HETATM   16  H   UNL     1      -6.779  -0.018   0.074  1.00  0.00     0.170 HD
HETATM   17  N   UNL     1      -4.779  -1.547   0.106  1.00  0.00    -0.242 NA
HETATM   18  C   UNL     1      -3.611  -2.220   0.208  1.00  0.00     0.130 A 
ENDBRANCH   6   7
ENDBRANCH   3   5
BRANCH   2  19
HETATM   19  C   UNL     1       2.375  -1.547  -1.514  1.00  0.00     0.191 C 
BRANCH  19  20
HETATM   20  C   UNL     1       2.959  -0.284  -0.952  1.00  0.00     0.078 A 
HETATM   21  O   UNL     1       4.075  -0.455  -0.219  1.00  0.00    -0.312 OA
HETATM   22  C   UNL     1       4.441   0.791   0.193  1.00  0.00     0.086 A 
HETATM   23  C   UNL     1       3.545   1.740  -0.290  1.00  0.00     0.006 A 
HETATM   24  C   UNL     1       5.549   1.093   0.982  1.00  0.00     0.038 A 
HETATM   25  C   UNL     1       2.581   1.014  -1.038  1.00  0.00    -0.018 A 
HETATM   26  C   UNL     1       3.759   3.091   0.032  1.00  0.00     0.015 A 
HETATM   27  C   UNL     1       1.415   1.567  -1.755  1.00  0.00     0.052 C 
HETATM   28  C   UNL     1       4.865   3.426   0.825  1.00  0.00     0.001 A 
HETATM   29  C   UNL     1       5.742   2.443   1.291  1.00  0.00     0.003 A 
ENDBRANCH  19  20
ENDBRANCH   2  19
TORSDOF 4
